# generated using our script
data_structure
_symmetry_space_group_name_H-M   'P 1'
_cell_length_a   39.896858
_cell_length_b   39.900696
_cell_length_c   16.494522
_cell_angle_alpha   89.990005
_cell_angle_beta   90.01326
_cell_angle_gamma   119.999748
_symmetry_Int_Tables_number   1
_chemical_formula_structural   formula_here
_chemical_formula_sum   'formula_sum_here'
_cell_volume   volume_here
_cell_formula_units_Z   units_here
loop_
 _symmetry_equiv_pos_site_id
 _symmetry_equiv_pos_as_xyz
  1  'x, y, z'
loop_
 _atom_site_type_symbol
 _atom_site_label
 _atom_site_symmetry_multiplicity
 _atom_site_fract_x
 _atom_site_fract_y
 _atom_site_fract_z
 _atom_site_occupancy
  H  H1  1  0.172337481464704  0.12167957956730843  0.31240675842848636  1.0
  H  H2  1  0.20403300964916968  0.14217071476068768  0.2468698467535021  1.0
  O  O3  1  0.197701869394957  0.14468661127600588  0.30313095131815093  1.0
